ligand_for_babel.pdb
  PyMOL2.5          3D                             0

 42 44  0  0  1  0  0  0  0  0999 V2000
   11.5200   -6.9800   -0.6240 C   0  0  0  0  0  0  0  0  0  0  0  0
   15.1900   -9.1760   -0.6960 N   0  0  0  0  0  0  0  0  0  0  0  0
   16.4820   -8.6110   -4.6710 O   0  0  0  0  0  0  0  0  0  0  0  0
   10.8660   -6.5810   -1.7750 C   0  0  0  0  0  0  0  0  0  0  0  0
   13.6330   -7.7670    0.3980 N   0  0  0  0  0  0  0  0  0  0  0  0
   10.9690   -6.6040    0.5890 C   0  0  0  0  0  0  0  0  0  0  0  0
   14.6980   -9.9590   -2.8340 N   0  0  0  0  0  0  0  0  0  0  0  0
    9.6950   -5.8360   -1.7290 C   0  0  0  0  0  0  0  0  0  0  0  0
    9.7950   -5.8520    0.6490 C   0  0  0  0  0  0  0  0  0  0  0  0
    9.1190   -5.4570   -0.5150 C   0  0  0  0  0  0  0  0  0  0  0  0
   12.7850   -7.7760   -0.6760 C   0  0  0  0  0  0  0  0  0  0  0  0
   13.1510   -8.5300   -1.7740 C   0  0  0  0  0  0  0  0  0  0  0  0
   16.0690  -10.3820   -3.0740 C   0  0  0  0  0  0  0  0  0  0  0  0
   16.9240   -9.1630   -3.4410 C   0  0  1  0  0  0  0  0  0  0  0  0
   20.3010  -10.2260   -4.8280 C   0  0  0  0  0  0  0  0  0  0  0  0
   18.9390   -9.9640   -4.7360 C   0  0  0  0  0  0  0  0  0  0  0  0
   19.2110   -9.3660   -2.4290 C   0  0  0  0  0  0  0  0  0  0  0  0
   14.3590   -9.2180   -1.7440 C   0  0  0  0  0  0  0  0  0  0  0  0
   14.7780   -8.4490    0.3420 C   0  0  0  0  0  0  0  0  0  0  0  0
   21.1200  -10.0470   -3.7210 C   0  0  0  0  0  0  0  0  0  0  0  0
   20.5730   -9.6200   -2.5200 C   0  0  0  0  0  0  0  0  0  0  0  0
   18.3840   -9.5240   -3.5380 C   0  0  0  0  0  0  0  0  0  0  0  0
    7.8600   -4.6050   -0.5120 C   0  0  0  0  0  0  0  0  0  0  0  0
    9.2690   -5.3790    2.2460 Cl  0  0  0  0  0  0  0  0  0  0  0  0
    7.3000   -4.6260   -1.7070 F   0  0  0  0  0  0  0  0  0  0  0  0
    8.2320   -3.3750   -0.2160 F   0  0  0  0  0  0  0  0  0  0  0  0
    6.9900   -5.0660    0.3690 F   0  0  0  0  0  0  0  0  0  0  0  0
   11.2660   -6.8320   -2.7510 H   0  0  0  0  0  0  0  0  0  0  0  0
   11.4690   -6.8630    1.5090 H   0  0  0  0  0  0  0  0  0  0  0  0
    9.2710   -5.5650   -2.6900 H   0  0  0  0  0  0  0  0  0  0  0  0
   12.5210   -8.5880   -2.6450 H   0  0  0  0  0  0  0  0  0  0  0  0
   16.0890  -11.1180   -3.9120 H   0  0  0  0  0  0  0  0  0  0  0  0
   16.4920  -10.8950   -2.1790 H   0  0  0  0  0  0  0  0  0  0  0  0
   16.8060   -8.3630   -2.6720 H   0  0  0  0  0  0  0  0  0  0  0  0
   20.7290  -10.5630   -5.7640 H   0  0  0  0  0  0  0  0  0  0  0  0
   18.3250  -10.1170   -5.6130 H   0  0  0  0  0  0  0  0  0  0  0  0
   18.7900   -9.0150   -1.4960 H   0  0  0  0  0  0  0  0  0  0  0  0
   16.4980   -9.3490   -5.2960 H   0  0  0  0  0  0  0  0  0  0  0  0
   15.4300   -8.3970    1.2180 H   0  0  0  0  0  0  0  0  0  0  0  0
   22.1860  -10.1950   -3.8160 H   0  0  0  0  0  0  0  0  0  0  0  0
   21.2080   -9.4500   -1.6630 H   0  0  0  0  0  0  0  0  0  0  0  0
   14.1990   -9.6240   -3.6570 H   0  0  0  0  0  0  0  0  0  0  0  0
  1  6  2  0  0  0  0
  2 19  2  0  0  0  0
  3 14  1  0  0  0  0
  1  4  1  0  0  0  0
  4  8  2  0  0  0  0
  6  9  1  0  0  0  0
  6 29  1  0  0  0  0
  7 18  1  0  0  0  0
  8 10  1  0  0  0  0
  9 24  1  0  0  0  0
  9 10  2  0  0  0  0
 10 23  1  0  0  0  0
  1 11  1  0  0  0  0
  5 11  2  0  0  0  0
 11 12  1  0  0  0  0
 12 18  2  0  0  0  0
  7 13  1  0  0  0  0
 13 33  1  0  0  0  0
 13 14  1  0  0  0  0
 14 34  1  0  0  0  0
 15 16  2  0  0  0  0
 15 20  1  0  0  0  0
 16 22  1  0  0  0  0
 17 37  1  0  0  0  0
  2 18  1  0  0  0  0
  5 19  1  0  0  0  0
 19 39  1  0  0  0  0
 20 21  2  0  0  0  0
 17 21  1  0  0  0  0
 21 41  1  0  0  0  0
 14 22  1  0  0  0  0
 17 22  2  0  0  0  0
 23 26  1  0  0  0  0
 23 27  1  0  0  0  0
 23 25  1  0  0  0  0
  4 28  1  0  0  0  0
  8 30  1  0  0  0  0
 12 31  1  0  0  0  0
 13 32  1  0  0  0  0
 15 35  1  0  0  0  0
 16 36  1  0  0  0  0
  3 38  1  0  0  0  0
 20 40  1  0  0  0  0
  7 42  1  0  0  0  0
M  END
$$$$
